实验/1354-system/case1354.py
from numpy import array

def load_case_data():
    ppc = {}
    ppc['version'] = '2'
    ppc['baseMVA'] = 100.0
    ppc['bus'] = array([
        [3, 1, 151, 48.8, 0, 4.69, 0, 1, 0, 220, 5, 1.1],
        [4, 1, 171.41, 23.4, 0, 2.1, 0, 1, 0, 220, 5, 1.1],
        [10, 1, 134, 24.7, 0, 12.44, 0, 1, 0, 220, 5, 1.1],
        [21, 1, 161.2, 39.3, 0, 30.71, 0, 1, 0, 220, 5, 1.1],
        [22, 1, 0, 0, 0, 0.85, 0, 1, 0, 220, 5, 1.1],
        [26, 1, 167.3, 54.8, 0, 110.54, 0, 1, 0, 380, 5, 1.1],
        [29, 1, 152.9, 49.4, 0, 27.65, 0, 1, 0, 380, 5, 1.1],
        [44, 1, 0, 0, 0, 7.27, 0, 1, 0, 220, 5, 1.1],
        [53, 1, 48.65, 16.1, 0, 7.14, 0, 1, 0, 220, 5, 1.1],
        [58, 1, 0, 0, 0, 2.31, 0, 1, 0, 380, 5, 1.1],
        [59, 1, 119.2, 20.7, 0, 3.31, 0, 1, 0, 220, 5, 1.1],
        [90, 1, 363.25, 115.39, 0, 3.95, 0, 1, 0, 220, 5, 1.1],
        [96, 1, -8.4, 28.66, 0, 3.49, 0, 1, 0, 220, 5, 1.1],
        [113, 1, 0, 0, 0, 6.532711, 0, 1, 0, 380, 5, 1.1],
        [115, 1, 0, 0, 0, 4.21, 0, 1, 0, 220, 5, 1.1],
        [118, 1, 704.53, -35.33, 0, 13.102834, 0, 1, 0, 380, 5, 1.1],
        [124, 2, 0, 0, 0, 0, 0, 1, 0, 220, 5, 1.1],
        [128, 1, 23.73, 12.7, 0, 0.52, 0, 1, 0, 220, 5, 1.1],
        [145, 1, 38.34, 5.6, 0, 7.64, 0, 1, 0, 220, 5, 1.1],
        [148, 1, 32.34, 12, 0, 6.1, 0, 1, 0, 220, 5, 1.1],
        [150, 2, 0, 0, 0, 0, 0, 1, 0, 220, 5, 1.1],
        [163, 1, 147.76, 32.73, 0, 8.34, 0, 1, 0, 220, 5, 1.1],
        [171, 1, 100.8, 13.2, 0, 5.24, 0, 1, 0, 220, 5, 1.1],
        [174, 1, 370.5, -17, 0, 9.91, 0, 1, 0, 220, 5, 1.1],
        [184, 1, 0, 0, 0, 2.42, 0, 1, 0, 220, 5, 1.1],
        [188, 1, 36.84, 13.9, 0, 3.3, 0, 1, 0, 220, 5, 1.1],
        [195, 1, 73.14, 21.55, 0, 8.52, 0, 1, 0, 220, 5, 1.1],
        [196, 1, 0, 0, 0, 12.48, 0, 1, 0, 220, 5, 1.1],
        [198, 1, 39.74, 11.8, 0, 1.44, 0, 1, 0, 220, 5, 1.1],
        [207, 1, 321.98, 84.4, 0, 1.34, 0, 1, 0, 220, 5, 1.1],
        [216, 1, 155.6, 54.7, 0, 2.21, 0, 1, 0, 220, 5, 1.1],
        [217, 1, 105.2, 0.1, 0, 7.36, 0, 1, 0, 220, 5, 1.1],
        [218, 1, 69.83, 15.12, 0, 2.23, 0, 1, 0, 220, 5, 1.1],
        [221, 2, 0, 0, 0, 0, 0, 1, 0, 380, 5, 1.1],
        [225, 1, 0, 0, 0, 1.15, 0, 1, 0, 220, 5, 1.1],
        [280, 1, 119.6, 29.6, 0, 5.34, 0, 1, 0, 220, 5, 1.1],
        [283, 1, 27.33, 11.9, 0, 1.17, 0, 1, 0, 220, 5, 1.1],
        [292, 1, 13.82, 1.4, 0, 0.7, 0, 1, 0, 220, 5, 1.1],
        [305, 1, 103, 12, 0, 0.63, 0, 1, 0, 220, 5, 1.1],
        [306, 1, 0, 0, 0, 4.76, 0, 1, 0, 220, 5, 1.1],
        [314, 1, 163.1, 46.3, 0, 10.6, 0, 1, 0, 220, 5, 1.1],
        [333, 1, 524.5, 43, 0, 6.85, 0, 1, 0, 220, 5, 1.1],
        [338, 2, 0, 0, 0, 0, 0, 1, 0, 220, 5, 1.1],
        [346, 1, 197.5, 48.3, 0, 0.71, 0, 1, 0, 220, 5, 1.1],
        [350, 1, 110.4, 26.2, 0, 5.62, 0, 1, 0, 220, 5, 1.1],
        [352, 2, 0, 0, 0, 0, 0, 1, 0, 380, 5, 1.1],
        [367, 1, 65.17, -51.5, 0, 4.85, 0, 1, 0, 220, 5, 1.1],
        [401, 1, 56.5, 36.29, 0, 3.08, 0, 1, 0, 220, 5, 1.1],
        [408, 1, 129.1, 7.4, 0, 0.04, 0, 1, 0, 220, 5, 1.1],
        [410, 1, 170.89, 50.38, 0, 6.44, 0, 1, 0, 220, 5, 1.1],
        [413, 2, 0, 0, 0, 0, 0, 1, 0, 220, 5, 1.1],
        [416, 1, 70.68, 13.5, 0, 6.96, 0, 1, 0, 220, 5, 1.1],
        [426, 1, 123.1, 6.5, 0, 3.25, 0, 1, 0, 220, 5, 1.1],
        [432, 1, 0, 0, 0, 68.517663, 0, 1, 0, 380, 5, 1.1],
        [444, 1, 0, 0, 0, 2.45, 0, 1, 0, 220, 5, 1.1],
        [449, 1, 0, 0, 0, 29.42, 0, 1, 0, 380, 5, 1.1],
        [453, 2, 0, 0, 0, 0, 0, 1, 0, 380, 5, 1.1],
        [455, 1, 274.32, 5.66, 0, 13.24, 0, 1, 0, 220, 5, 1.1],
        [490, 1, 20.52, 4, 0, 2.77, 0, 1, 0, 220, 5, 1.1],
        [500, 1, 144.4, 35.5, 0, 7.66, 0, 1, 0, 220, 5, 1.1],
        [502, 1, 0, 0, 0, 1.96, 0, 1, 0, 220, 5, 1.1],
        [506, 1, 0, 0, 0, 0.4, 0, 1, 0, 380, 5, 1.1],
        [513, 1, 57.46, 17.1, 0, 1.61, 0, 1, 0, 220, 5, 1.1],
        [516, 2, 0, 0, 0, 0, 0, 1, 0, 220, 5, 1.1],
        [520, 1, 118.5, 20.4, 0, 2.57, 0, 1, 0, 220, 5, 1.1],
        [549, 1, 0, 0, 0, 5.15, 0, 1, 0, 220, 5, 1.1],
        [554, 1, 0, 0, 0, 1.97, 0, 1, 0, 220, 5, 1.1],
        [556, 1, 16.52, 9, 0, 1.17, 0, 1, 0, 220, 5, 1.1],
        [561, 1, 0, 0, 0, 0.32, 0, 1, 0, 220, 5, 1.1],
        [564, 2, 0, 0, 0, 0, 0, 1, 0, 220, 5, 1.1],
        [575, 1, 0, 0, 0, 0.67, 0, 1, 0, 220, 5, 1.1],
        [583, 2, 0, 0, 0, 0, 0, 1, 0, 220, 5, 1.1],
        [594, 1, 67.57, 17, 0, 5.75, 0, 1, 0, 220, 5, 1.1],
        [601, 1, 140.6, 42.6, 0, 5.71, 0, 1, 0, 220, 5, 1.1],
        [604, 1, 33.24, 4.4, 0, 24.54, 0, 1, 0, 380, 5, 1.1],
        [608, 1, 150.9, 10.4, 0, 4.77, 0, 1, 0, 220, 5, 1.1],
        [609, 1, 0, 0, 0, 5.67, 0, 1, 0, 220, 5, 1.1],
        [615, 2, 0, 0, 0, 0, 0, 1, 0, 220, 5, 1.1],
        [616, 2, 0, 0, 0, 0, 0, 1, 0, 220, 5, 1.1],
        [619, 1, 72.88, 14.4, 0, 2.96, 0, 1, 0, 220, 5, 1.1],
        [639, 2, 0, 0, 0, 0, 0, 1, 0, 220, 5, 1.1],
        [641, 1, 45.32, 18.5, 0, 0.74, 0, 1, 0, 220, 5, 1.1],
        [658, 1, 258.4, 66.7, 0, 5.87, 0, 1, 0, 220, 5, 1.1],
        [661, 1, 0, 0, 0, 0.6, 0, 1, 0, 380, 5, 1.1],
        [666, 1, -5.61, -2.79, 0, 150.93, 0, 1, 0, 380, 5, 1.1],
        [678, 1, 232.1, 89.8, 0, 0.09, 0, 1, 0, 220, 5, 1.1],
        [682, 2, 0, 0, 0, 0, 0, 1, 0, 220, 5, 1.1],
        [687, 1, 0, 0, 0, 5.6, 0, 1, 0, 220, 5, 1.1],
        [707, 1, 83.99, 21.2, 0, 5.36, 0, 1, 0, 220, 5, 1.1],
        [718, 1, 135.11, 41, 0, 5.31, 0, 1, 0, 220, 5, 1.1],
        [720, 1, 0, 0, 0, 23.554121, 0, 1, 0, 380, 5, 1.1],
        [726, 1, 400.3, 189.9, 0, 0.53, 0, 1, 0, 220, 5, 1.1],
        [742, 1, 0, 0, 0, 2.83, 0, 1, 0, 220, 5, 1.1],
        [747, 1, 69.58, 16, 0, 3.03, 0, 1, 0, 220, 5, 1.1],
        [749, 2, 0, 0, 0, 0, 0, 1, 0, 220, 5, 1.1],
        [750, 1, 0, 0, 0, 18.63, 0, 1, 0, 220, 5, 1.1],
        [757, 2, 0, 0, 0, 0, 0, 1, 0, 380, 5, 1.1],
        [766, 1, 0, 0, 0, 7.85, 0, 1, 0, 220, 5, 1.1],
        [769, 1, 152.57, 40, 0, 6.12, 0, 1, 0, 220, 5, 1.1],
        [772, 1, 343.9, 141.9, 0, 5.55, 0, 1, 0, 220, 5, 1.1],
        [776, 2, 0, 0, 0, 0, 0, 1, 0, 220, 5, 1.1],
        [778, 2, 0, 0, 0, 0, 0, 1, 0, 220, 5, 1.1],
        [789, 1, 0, 0, 0, 6.63, 0, 1, 0, 220, 5, 1.1],
        [795, 2, 0, 0, 0, 0, 0, 1, 0, 220, 5, 1.1],
        [800, 1, 50.56, 18, 0, 0.11, 0, 1, 0, 220, 5, 1.1],
        [803, 2, 0, 0, 0, 0, 0, 1, 0, 220, 5, 1.1],
        [804, 1, 0, 0, 0, 7.26, 0, 1, 0, 220, 5, 1.1],
        [805, 1, 124.5, 29.6, 0, 15.4, 0, 1, 0, 220, 5, 1.1],
        [809, 1, 0, 0, 0, 58.088687, 0, 1, 0, 380, 5, 1.1],
        [819, 1, 0, 0, 0, 0.22, 0, 1, 0, 220, 5, 1.1],
        [823, 2, 0, 0, 0, 0, 0, 1, 0, 380, 5, 1.1],
        [839, 1, 0, 0, 0, 8.17514, 0, 1, 0, 380, 5, 1.1],
        [851, 2, 0, 0, 0, 0, 0, 1, 0, 220, 5, 1.1],
        [858, 2, 0, 0, 0, 0, 0, 1, 0, 380, 5, 1.1],
        [870, 1, 110, 3.4, 0, 11.95, 0, 1, 0, 220, 5, 1.1],
        [871, 1, 108.89, -21.76, 0, 3.72, 0, 1, 0, 220, 5, 1.1],
        [883, 1, 192.5, 78.3, 0, 6.65, 0, 1, 0, 220, 5, 1.1],
        [891, 2, 0, 0, 0, 0, 0, 1, 0, 380, 5, 1.1],
        [892, 1, 0, 0, 0, 9.1, 0, 1, 0, 220, 5, 1.1],
        [900, 1, 0, 0, 0, 0.15, 0, 1, 0, 220, 5, 1.1],
        [903, 1, 82.69, 20.1, 0, 1.36, 0, 1, 0, 220, 5, 1.1],
        [905, 1, 631.71, -54.16, 0, 7.534129, 0, 1, 0, 380, 5, 1.1],
        [907, 1, 0, 0, 0, 0.05, 0, 1, 0, 220, 5, 1.1],
        [908, 1, 125.9, -0.5, 0, 0.21, 0, 1, 0, 220, 5, 1.1],
        [920, 1, 34.44, 8.5, 0, 1.11, 0, 1, 0, 220, 5, 1.1],
        [923, 1, 62.07, 14.7, 0, 4.84, 0, 1, 0, 220, 5, 1.1],
        [933, 1, 0, 0, 0, 22.75, 0, 1, 0, 220, 5, 1.1],
        [935, 1, 0, 0, 0, 9.46, 0, 1, 0, 220, 5, 1.1],
        [953, 1, 108.7, -12.15, 0, 37.11, 0, 1, 0, 380, 5, 1.1],
        [954, 1, 66.27, 13.6, 0, 0.67, 0, 1, 0, 220, 5, 1.1],
        [960, 1, 0, 0, 0, 108.728602, 0, 1, 0, 380, 5, 1.1],
        [964, 1, 88.5, 16.5, 0, 146.44, 0, 1, 0, 380, 5, 1.1],
        [972, 2, 0, 0, 0, 0, 0, 1, 0, 380, 5, 1.3],
        [980, 1, 14.71, 4.6, 0, 7.88, 0, 1, 0, 220, 5, 1.1],
        [1001, 2, 0, 0, 0, 0, 0, 1, 0, 220, 5, 1.1],
        [1002, 2, 0, 0, 0, 0, 0, 1, 0, 220, 5, 1.1],
        [1005, 1, 0, 0, 0, 0.81, 0, 1, 0, 220, 5, 1.1],
        [1015, 1, 44.55, 0, 0, 4.78, 0, 1, 0, 220, 5, 1.1],
        [1026, 1, 201.4, 53, 0, 9.67, 0, 1, 0, 220, 5, 1.1],
        [1027, 1, -5.91, -2.33, 0, 30.393595, 0, 1, 0, 380, 5, 1.1],
        [1033, 1, 26.33, 5.3, 0, 4.31, 0, 1, 0, 220, 5, 1.1],
        [1035, 1, 382.5, 57.9, 0, 8.16, 0, 1, 0, 220, 5, 1.1],
        [1039, 1, 34.64, 0, 0, 0.91, 0, 1, 0, 220, 5, 1.1],
        [1040, 1, 31.94, 8.8, 0, 3.79, 0, 1, 0, 220, 5, 1.1],
        [1043, 2, 0, 0, 0, 0, 0, 1, 0, 380, 5, 1.1],
        [1051, 1, 0, 0, 0, 3.79, 0, 1, 0, 220, 5, 1.1],
        [1077, 1, 0, 0, 0, 0.1, 0, 1, 0, 220, 5, 1.1],
        [1078, 1, 0, 0, 0, 4.74, 0, 1, 0, 220, 5, 1.1],
        [1081, 1, 277.86, 58.95, 0, 182.880644, 0, 1, 0, 380, 5, 1.1],
        [1083, 2, 0, 0, 0, 0, 0, 1, 0, 220, 5, 1.1],
        [1090, 1, 56.06, 18.7, 0, 4.24, 0, 1, 0, 220, 5, 1.1],
        [1093, 2, 0, 0, 0, 0, 0, 1, 0, 380, 5, 1.1],
        [1096, 1, 0, 0, 0, 0.16, 0, 1, 0, 220, 5, 1.1],
        [1100, 2, 0, 0, 0, 0, 0, 1, 0, 220, 5, 1.1],
        [1101, 1, 0, 0, 0, 2.05, 0, 1, 0, 220, 5, 1.1],
        [1102, 2, 0, 0, 0, 0, 0, 1, 0, 220, 5, 1.1],
        [1105, 1, 29.83, 7.3, 0, 6.49, 0, 1, 0, 220, 5, 1.1],
        [1111, 1, 0, 0, 0, 1.1, 0, 1, 0, 220, 5, 1.1],
        [1129, 1, 190.47, 55.03, 0, 6.7, 0, 1, 0, 220, 5, 1.1],
        [1136, 1, 16.22, 2, 0, 0.71, 0, 1, 0, 220, 5, 1.1],
        [1137, 1, 0, 0, 0, 0.05, 0, 1, 0, 220, 5, 1.1],
        [1146, 1, 32.84, 0, 0, 1.41, 0, 1, 0, 220, 5, 1.1],
        [1151, 1, 0, 0, 0, 18.82, 0, 1, 0, 220, 5, 1.1],
        [1153, 1, 12.41, 3.9, 0, 2.23, 0, 1, 0, 220, 5, 1.1],
        [1156, 1, 65.67, 24, 0, 9.95, 0, 1, 0, 220, 5, 1.1],
        [1159, 1, 112.4, 13, 0, 3.99, 0, 1, 0, 220, 5, 1.1],
        [1172, 1, 0, 0, 0, 2.3, 0, 1, 0, 220, 5, 1.1],
        [1179, 1, 86.6, 23.4, 0, 0.39, 0, 1, 0, 220, 5, 1.1],
        [1183, 1, 199.4, -19.9, 0, 6.68, 0, 1, 0, 220, 5, 1.1],
        [1187, 1, 67.57, 21.2, 0, 5.71, 0, 1, 0, 220, 5, 1.1],
        [1188, 1, 30.93, 6.6, 0, 9.09, 0, 1, 0, 220, 5, 1.1],
        [1194, 1, 129.6, 13.3, 0, 13.98, 0, 1, 0, 380, 5, 1.1],
        [1198, 1, 0, 0, 0, 30.637696, 0, 1, 0, 380, 5, 1.1],
        [1201, 1, 114.1, 23.5, 0, 1.08, 0, 1, 0, 220, 5, 1.1],
        [1216, 1, 0, 0, 0, 4.93, 0, 1, 0, 220, 5, 1.1],
        [1233, 1, 0, 0, 0, 1.72, 0, 1, 0, 220, 5, 1.1],
        [1234, 1, 71.78, 17.9, 0, 1.96, 0, 1, 0, 220, 5, 1.1],
        [1237, 2, 0, 0, 0, 0, 0, 1, 0, 380, 5, 1.3],
        [1248, 1, 0, 0, 0, 1.17, 0, 1, 0, 220, 5, 1.1],
        [1249, 1, 348.93, 26.47, 0, 9.36, 0, 1, 0, 380, 5, 1.1],
        [1251, 2, 0, 0, 0, 0, 0, 1, 0, 380, 5, 1.1],
        [1262, 1, 0, 0, 0, 10.73, 0, 1, 0, 220, 5, 1.1],
        [1265, 1, 173, -21.3, 0, 5.93, 0, 1, 0, 220, 5, 1.1],
        [1275, 1, 52.46, 2.9, 0, 0.35, 0, 1, 0, 220, 5, 1.1],
        [1295, 2, 0, 0, 0, 0, 0, 1, 0, 220, 5, 1.1],
        [1301, 1, 479, 99.2, 0, 10.68, 0, 1, 0, 220, 5, 1.1],
        [1305, 1, 0, 0, 0, 4.34, 0, 1, 0, 220, 5, 1.1],
        [1311, 1, 37.94, 15.2, 0, 35.31, 0, 1, 0, 380, 5, 1.1],
        [1326, 1, 0, 0, 0, 0.98, 0, 1, 0, 220, 5, 1.1],
        [1334, 1, 0, 0, 0, 0.59, 0, 1, 0, 220, 5, 1.1],
        [1341, 2, 0, 0, 0, 0, 0, 1, 0, 220, 5, 1.1],
        [1343, 1, 0, 0, 0, 58.3, 0, 1, 0, 380, 5, 1.1],
        [1354, 2, 0, 0, 0, 0, 0, 1, 0, 220, 5, 1.1],
        [1355, 1, -3.29, -1.32, 0, 190.704588, 0, 1, 0, 380, 5, 1.1],
        [1364, 1, 40.85, 14.5, 0, 0.59, 0, 1, 0, 220, 5, 1.1],
        [1380, 1, 145.2, 21.4, 0, 1.09, 0, 1, 0, 220, 5, 1.1],
        [1394, 1, 30.93, 7.6, 0, 4.69, 0, 1, 0, 220, 5, 1.1],
        [1397, 1, 0, 0, 0, 2.14, 0, 1, 0, 220, 5, 1.1],
        [1398, 1, 196.7, 44.2, 0, 0.1, 0, 1, 0, 220, 5, 1.1],
        [1401, 1, 11.91, 2.9, 0, 5.27, 0, 1, 0, 220, 5, 1.1],
...
    ])
    ppc['gen'] = array([
        [124, 666.665, 133.865, 440.32, -172.59, 1, 100, 1, 1000],
        [150, 80, 27.275, 77.09, -22.54, 1, 100, 1, 160],
        [221, -53.59, 59.31, 183.92, -65.3, 1, 100, 1, 100],
        [338, 60, 18.19, 55.54, -19.16, 1, 100, 1, 120],
        [352, 1333.335, 314.335, 926.35, -297.68, 1, 100, 1, 2000],
        [413, 140, 37.14, 124.12, -49.84, 1, 100, 1, 280],
        [453, 270, 91.415, 257.23, -74.4, 1, 100, 1, 540],
        [516, 400, 77.56, 261.79, -106.67, 1, 100, 1, 600],
        [564, 15.555, -0.44, 18.47, -19.35, 1, 100, 1, 100],
        [583, -130, 5.425, 17.88, -7.03, 1, 100, 1, 100],
        [615, 20, 4.65, 17.09, -7.79, 1, 100, 1, 40],
        [616, 320, 68.37, 217.9, -81.16, 1, 100, 1, 480],
        [639, 19.2, 48.31, 135.52, -38.9, 1, 100, 1, 100],
        [682, 40, 13.855, 38.77, -11.06, 1, 100, 1, 80],
        [749, 120, 30.925, 105.69, -43.84, 1, 100, 1, 240],
        [757, 60, 13.945, 51.3, -23.41, 1, 100, 1, 120],
        [776, -24.265, 5.715, 18.16, -6.73, 1, 100, 1, 100],
        [778, 16.79, 1.505, 12.37, -9.36, 1, 100, 1, 33.58],
        [795, 40, 11.855, 36.75, -13.04, 1, 100, 1, 80],
        [803, -9.465, 24.245, 74.03, -25.54, 1, 100, 1, 100],
        [823, 1333.335, 314.185, 926.68, -298.31, 1, 100, 1, 2000],
        [851, 100, 34.415, 96.64, -27.81, 1, 100, 1, 200],
        [858, 666.665, 134.26, 440.67, -172.15, 1, 100, 1, 1000],
        [891, 1600, 361.75, 1097.41, -373.91, 1, 100, 1, 2400],
        [972, 1333.335, 321.605, 934.73, -291.52, 1, 100, 1, 2000],
        [1001, 60, 17.605, 55.02, -19.81, 1, 100, 1, 120],
        [1002, 100, 27.2, 89.55, -35.15, 1, 100, 1, 200],
        [1043, 600, 112.24, 387.88, -163.4, 1, 100, 1, 900],
        [1083, 60, 17.515, 54.91, -19.88, 1, 100, 1, 120],
        [1093, 800, 182.77, 550.69, -185.15, 1, 100, 1, 1200],
        [1100, 40, 11.895, 36.8, -13.01, 1, 100, 1, 80],
        [1102, -32.77, 13.23, 38.05, -11.59, 1, 100, 1, 100],
        [1237, 1333.335, 293.585, 906.61, -319.44, 1, 100, 1, 2000],
        [1251, 800, 182.77, 550.69, -185.15, 1, 100, 1, 1200],
        [1295, -32.735, 12.02, 36.92, -12.88, 1, 100, 1, 100],
        [1341, 60, 19.705, 57.03, -17.62, 1, 100, 1, 120],
        [1354, -114.335, 13.175, 38.08, -11.73, 1, 100, 1, 100],
        [1422, -17.335, 5.65, 18.09, -6.79, 1, 100, 1, 100],
        [1436, 40, 12.815, 37.72, -12.09, 1, 100, 1, 80],
        [1478, 40, 11.48, 36.4, -13.44, 1, 100, 1, 80],
        [1604, 40, 12.745, 37.66, -12.17, 1, 100, 1, 80],
        [1642, 40, 12.815, 37.74, -12.11, 1, 100, 1, 80],
        [1680, 1333.335, 316.395, 928.89, -296.1, 1, 100, 1, 2000],
        [1708, 666.665, 133.035, 439.37, -173.3, 1, 100, 1, 1000],
        [1721, 20, 6.065, 18.52, -6.39, 1, 100, 1, 40],
        [1754, 20.53, 4.535, 16.99, -7.92, 1, 100, 1, 41.06],
        [1794, 1333.335, 314.335, 926.35, -297.68, 1, 100, 1, 2000],
        [1808, 49.6, 36.535, 111.23, -38.16, 1, 100, 1, 100],
        [1851, 15.96, 1.435, 11.76, -8.89, 1, 100, 1, 31.92],
        [1852, -111.2, 20.82, 58.16, -16.52, 1, 100, 1, 100],
        [1888, 612.78, 120.095, 396.02, -155.83, 1, 100, 1, 912.78],
        [1914, 255.755, 4.705, 160.36, -150.95, 1, 100, 1, 472.16],
        [1959, 20, 5.695, 18.14, -6.75, 1, 100, 1, 40],
        [2035, 666.665, 135.29, 441.85, -171.27, 1, 100, 1, 1000],
        [2050, 1333.335, 349.275, 962.2, -263.65, 1, 100, 1, 2000],
        [2085, 100, 26.1, 88.39, -36.19, 1, 100, 1, 200],
        [2177, -30.865, 21.045, 58.35, -16.26, 1, 100, 1, 100],
        [2197, 14.475, 2.385, 19.51, -14.74, 1, 100, 1, 100],
        [2276, 59.65, 2.585, 41.67, -36.5, 1, 100, 1, 119.3],
        [2291, 100, 33.38, 95.69, -28.93, 1, 100, 1, 200],
        [2359, 40, 9.425, 34.35, -15.5, 1, 100, 1, 80],
        [2421, -163.6, 12.47, 37.39, -12.45, 1, 100, 1, 100],
        [2425, -17, 16.905, 54.3, -20.49, 1, 100, 1, 100],
        [2426, 21.2, 3.16, 105.34, -99.02, 1, 100, 1, 100],
        [2446, 1333.335, 308.445, 921.62, -304.73, 1, 100, 1, 2000],
        [2468, 40, 13.105, 38.02, -11.81, 1, 100, 1, 80],
        [2481, 40, 14.205, 39.12, -10.71, 1, 100, 1, 80],
        [2489, 180, 50.305, 162.4, -61.79, 1, 100, 1, 360],
        [2550, 60, 20.87, 58.23, -16.49, 1, 100, 1, 120],
        [2600, 80, 26.245, 76.08, -23.59, 1, 100, 1, 160],
        [2627, 1333.335, 308.365, 921.52, -304.79, 1, 100, 1, 2000],
        [2653, 60, 14.57, 51.94, -22.8, 1, 100, 1, 120],
        [2719, 98.36, 6.025, 70.15, -58.1, 1, 100, 1, 196.72],
        [2786, 1333.335, 321.67, 934.81, -291.47, 1, 100, 1, 2000],
        [2797, -13.4, 26, 88.33, -36.33, 1, 100, 1, 100],
        [2799, 80, 28.125, 77.91, -21.66, 1, 100, 1, 160],
        [2816, 1333.335, 314.26, 926.26, -297.74, 1, 100, 1, 2000],
        [2841, 60, 18.61, 55.98, -18.76, 1, 100, 1, 120],
        [2842, 20, 5.725, 18.19, -6.74, 1, 100, 1, 40],
        [2872, 4.525, 0.385, 3.31, -2.54, 1, 100, 1, 9.05],
        [2878, 107.43, 2.12, 72.95, -68.71, 1, 100, 1, 214.86],
        [2886, 60, 20.335, 57.69, -17.02, 1, 100, 1, 120],
        [2902, 20, 6.735, 19.19, -5.72, 1, 100, 1, 40],
        [2930, 40, 12.35, 37.24, -12.54, 1, 100, 1, 80],
        [2934, 3.415, 0.3, 2.51, -1.91, 1, 100, 1, 6.83],
        [2985, 246.675, 25.895, 184.46, -132.67, 1, 100, 1, 493.35],
        [3018, 100, 27.395, 89.61, -34.82, 1, 100, 1, 200],
        [3028, 666.665, 135.29, 441.85, -171.27, 1, 100, 1, 1000],
        [3114, 20, 4.86, 17.33, -7.61, 1, 100, 1, 40],
        [3133, 120, 39.205, 113.97, -35.56, 1, 100, 1, 240],
        [3134, -40.865, 20.46, 70.25, -29.33, 1, 100, 1, 100],
        [3183, 60, 16.36, 53.7, -20.98, 1, 100, 1, 120],
        [3205, 270, 77.575, 243.61, -88.46, 1, 100, 1, 540],
        [3218, -21.6, 11.895, 36.79, -13, 1, 100, 1, 100],
        [3240, 21.8, 5.43, 62.23, -51.37, 1, 100, 1, 100],
        [3306, 666.665, 132.885, 439.2, -173.43, 1, 100, 1, 1000],
        [3324, 32.35, 13.245, 38.13, -11.64, 1, 100, 1, 100],
        [3346, 40, 12.17, 37.1, -12.76, 1, 100, 1, 80],
        [3353, 40, 13.295, 38.2, -11.61, 1, 100, 1, 80],
        [3364, 67.635, 2.875, 47.19, -41.44, 1, 100, 1, 135.27],
        [3390, 60, 17.2, 54.59, -20.19, 1, 100, 1, 120],
        [3422, 60, 20.845, 58.19, -16.5, 1, 100, 1, 120],
        [3436, 800, 183.04, 550.97, -184.89, 1, 100, 1, 1200],
        [3492, -197.2, 16.335, 53.75, -21.08, 1, 100, 1, 100],
        [3513, 600, 112.24, 387.88, -163.4, 1, 100, 1, 900],
        [3565, 40, 13.93, 38.83, -10.97, 1, 100, 1, 80],
        [3580, 300, 77.17, 261.7, -107.36, 1, 100, 1, 600],
        [3611, -33.6, 17.235, 54.59, -20.12, 1, 100, 1, 100],
        [3656, 32.535, 41.375, 116.07, -33.32, 1, 100, 1, 100],
        [3661, 666.665, 134.495, 441.04, -172.05, 1, 100, 1, 1000],
        [3698, 41.61, 11.435, 36.34, -13.47, 1, 100, 1, 100],
        [3741, 800, 180.705, 548.57, -187.16, 1, 100, 1, 1200],
        [3809, 466.665, 98.14, 313.01, -116.73, 1, 100, 1, 700],
        [3825, 600, 112.385, 388.17, -163.4, 1, 100, 1, 900],
        [3869, 666.665, 134.275, 440.69, -172.14, 1, 100, 1, 1000],
        [3876, 33.265, 9.375, 34.27, -15.52, 1, 100, 1, 100],
        [3916, 35.815, 13.125, 38.02, -11.77, 1, 100, 1, 100],
        [3951, 31.935, -0.7, 126.16, -127.56, 1, 100, 1, 100],
        [3971, -39.665, 18.29, 55.67, -19.09, 1, 100, 1, 100],
        [4024, 100, 34.815, 97.07, -27.44, 1, 100, 1, 200],
        [4056, -1.265, 13.14, 38.05, -11.77, 1, 100, 1, 100],
        [4084, 300, 80.6, 264.94, -103.74, 1, 100, 1, 600],
        [4118, 40, 13.485, 38.37, -11.4, 1, 100, 1, 80],
        [4125, 40, 11.945, 36.89, -13, 1, 100, 1, 80],
        [4128, 60, 19.7, 57.03, -17.63, 1, 100, 1, 120],
        [4231, 2761.14, 0, 99999, -99999, 1, 100, 1, 4188.95],
        [4331, 40, 11.805, 36.73, -13.12, 1, 100, 1, 80],
        [4395, -36.065, 13.575, 38.48, -11.33, 1, 100, 1, 100],
        [4419, 666.665, 134.495, 441.04, -172.05, 1, 100, 1, 1000],
        [4480, 666.665, 132.885, 439.2, -173.43, 1, 100, 1, 1000],
        [4482, 40, 13.95, 38.85, -10.95, 1, 100, 1, 80],
        [4506, -64.535, 12.955, 37.86, -11.95, 1, 100, 1, 100],
        [4566, 29.745, 13.035, 37.94, -11.87, 1, 100, 1, 100],
        [4624, 40, 10.715, 35.62, -14.19, 1, 100, 1, 80],
        [4661, -2.6, 6.685, 19.14, -5.77, 1, 100, 1, 100],
        [4701, 140.925, 6.055, 98.4, -86.29, 1, 100, 1, 281.85],
        [4783, 666.665, 132.885, 439.2, -173.43, 1, 100, 1, 1000],
        [4816, 32.615, 13.465, 38.37, -11.44, 1, 100, 1, 100],
        [4819, 666.665, 134.275, 440.69, -172.14, 1, 100, 1, 1000],
        [4823, 5.23, 1.185, 4.44, -2.07, 1, 100, 1, 10.46],
        [4850, 80, 26.665, 76.52, -23.19, 1, 100, 1, 160],
        [4880, 23.135, 25.83, 75.62, -23.96, 1, 100, 1, 100],
        [4918, 40, 12.35, 37.27, -12.57, 1, 100, 1, 80],
        [4952, 41.615, 12.31, 37.23, -12.61, 1, 100, 1, 100],
        [5004, 110.06, 2.16, 74.73, -70.41, 1, 100, 1, 220.12],
        [5019, 40, 12.815, 37.72, -12.09, 1, 100, 1, 80],
        [5051, 80, 24.79, 74.55, -24.97, 1, 100, 1, 160],
        [5067, 300, 74.665, 258.91, -109.58, 1, 100, 1, 600],
        [5110, 14.995, 13.39, 38.28, -11.5, 1, 100, 1, 100],
        [5120, 60, 18.965, 56.35, -18.42, 1, 100, 1, 120],
        [5144, 1333.335, 269.81, 882.86, -343.24, 1, 100, 1, 2000],
        [5237, 80, 25.14, 75.02, -24.74, 1, 100, 1, 160],
        [5278, 60, 13.905, 51.3, -23.49, 1, 100, 1, 120],
        [5340, -56, 11.47, 36.37, -13.43, 1, 100, 1, 100],
        [5365, 20, 5.695, 18.14, -6.75, 1, 100, 1, 40],
        [5379, 1333.335, 314.42, 926.47, -297.63, 1, 100, 1, 2000],
        [5395, -213.865, 20.7, 58.06, -16.66, 1, 100, 1, 100],
        [5461, 40, 13.355, 38.26, -11.55, 1, 100, 1, 80],
        [5481, 1333.335, 307.335, 920.31, -305.64, 1, 100, 1, 2000],
        [5482, 124.53, 26.6, 101.32, -48.12, 1, 100, 1, 249.06],
        [5486, 666.665, 134.495, 441.04, -172.05, 1, 100, 1, 1000],
        [5488, -14.265, 12.58, 37.49, -12.33, 1, 100, 1, 100],
        [5490, 2666.665, 539.345, 1765.36, -686.67, 1, 100, 1, 4000],
        [5533, 100, 26.58, 88.87, -35.71, 1, 100, 1, 200],
        [5546, 20, 6.705, 19.16, -5.75, 1, 100, 1, 40],
        [5564, 40, 11.905, 36.8, -12.99, 1, 100, 1, 80],
        [5658, 120, 28.465, 103.18, -46.25, 1, 100, 1, 240],
        [5664, 80, 22.83, 72.71, -27.05, 1, 100, 1, 160],
        [5709, 800, 182.77, 550.69, -185.15, 1, 100, 1, 1200],
        [5781, 1200, 227.25, 779.29, -324.79, 1, 100, 1, 1800],
        [5814, 293.335, 59.905, 196.98, -77.17, 1, 100, 1, 440],
        [5856, 320, 64.565, 214.13, -85, 1, 100, 1, 480],
        [5881, 40, 11.795, 36.72, -13.13, 1, 100, 1, 80],
        [5940, 0.065, 4.74, 17.21, -7.73, 1, 100, 1, 100],
        [5971, 1333.335, 321.45, 934.54, -291.64, 1, 100, 1, 2000],
        [5983, -18.335, 12.34, 37.27, -12.59, 1, 100, 1, 100],
        [5994, -8.2, -0.285, 60.51, -61.08, 1, 100, 1, 100],
        [6036, 600, 114.62, 390.4, -161.16, 1, 100, 1, 900],
        [6153, 401.01, -6.085, 249.65, -261.82, 1, 100, 1, 769.94],
        [6168, 26.88, 2.465, 19.86, -14.93, 1, 100, 1, 53.76],
        [6291, 60, 20.76, 58.12, -16.6, 1, 100, 1, 120],
        [6331, 40, 12.855, 37.76, -12.05, 1, 100, 1, 80],
        [6332, 100, 34.305, 96.56, -27.95, 1, 100, 1, 200],
        [6351, 40, 13.365, 38.29, -11.56, 1, 100, 1, 80],
        [6368, -46.865, 13.825, 51.11, -23.46, 1, 100, 1, 100],
        [6376, 31.465, 48.96, 148.65, -50.73, 1, 100, 1, 100],
        [6429, 100, 26.57, 88.83, -35.69, 1, 100, 1, 200],
        [6474, 666.665, 132.285, 438.72, -174.15, 1, 100, 1, 1000],
        [6516, 140, 39.45, 126.73, -47.83, 1, 100, 1, 280],
        [6552, -86.135, 12.71, 37.58, -12.16, 1, 100, 1, 100],
        [6734, 360, 89.715, 311.52, -132.09, 1, 100, 1, 720],
        [6807, 80, 27.34, 77.14, -22.46, 1, 100, 1, 160],
        [6816, 80, 27.545, 77.35, -22.26, 1, 100, 1, 160],
        [6820, 16.265, 1.465, 11.99, -9.06, 1, 100, 1, 32.53],
        [6831, 11.665, 10.685, 35.62, -14.25, 1, 100, 1, 100],
        [6845, 60, 15.885, 53.24, -21.47, 1, 100, 1, 120],
        [6852, -179.935, 6.11, 18.56, -6.34, 1, 100, 1, 100],
        [6857, 2666.665, 639.94, 1865.83, -585.95, 1, 100, 1, 4000],
        [6888, 194.335, 64.72, 189.31, -59.87, 1, 100, 1, 300],
        [6947, 140, 38.9, 126.09, -48.29, 1, 100, 1, 280],
...
    ])
    ppc['gencost'] = array([
        [2, 0, 0, 3, 0, 10.258323],
        [2, 0, 0, 3, 0, 35.739304],
        [2, 0, 0, 3, 0, 25.382856],
        [2, 0, 0, 3, 0, 22.57053],
        [2, 0, 0, 3, 0, 24.410748],
        [2, 0, 0, 3, 0, 37.397266],
        [2, 0, 0, 3, 0, 14.602967],
        [2, 0, 0, 3, 0, 6.171706],
        [2, 0, 0, 3, 0, 26.392883],
        [2, 0, 0, 3, 0, 29.720369],
        [2, 0, 0, 3, 0, 35.601645],
        [2, 0, 0, 3, 0, 19.829521],
        [2, 0, 0, 3, 0, 15.01068],
        [2, 0, 0, 3, 0, 9.860522],
        [2, 0, 0, 3, 0, 11.144193],
        [2, 0, 0, 3, 0, 0.348478],
        [2, 0, 0, 3, 0, 45.48034],
        [2, 0, 0, 3, 0, 48.260283],
        [2, 0, 0, 3, 0, 28.185912],
        [2, 0, 0, 3, 0, 32.876654],
        [2, 0, 0, 3, 0, 29.050011],
        [2, 0, 0, 3, 0, 17.693424],
        [2, 0, 0, 3, 0, 28.179452],
        [2, 0, 0, 3, 0, 16.78295],
        [2, 0, 0, 3, 0, 34.077711],
        [2, 0, 0, 3, 0, 25.254765],
        [2, 0, 0, 3, 0, 25.888316],
        [2, 0, 0, 3, 0, 38.064806],
        [2, 0, 0, 3, 0, 35.093256],
        [2, 0, 0, 3, 0, 33.895058],
        [2, 0, 0, 3, 0, 42.531078],
        [2, 0, 0, 3, 0, 44.703485],
        [2, 0, 0, 3, 0, 19.144125],
        [2, 0, 0, 3, 0, 39.146988],
        [2, 0, 0, 3, 0, 32.283038],
        [2, 0, 0, 3, 0, 33.961897],
        [2, 0, 0, 3, 0, 24.001968],
        [2, 0, 0, 3, 0, 26.922445],
        [2, 0, 0, 3, 0, 28.934071],
        [2, 0, 0, 3, 0, 29.194991],
        [2, 0, 0, 3, 0, 39.793039],
        [2, 0, 0, 3, 0, 43.399752],
        [2, 0, 0, 3, 0, 20.054935],
        [2, 0, 0, 3, 0, 18.252906],
        [2, 0, 0, 3, 0, 41.981874],
        [2, 0, 0, 3, 0, 42.98204],
        [2, 0, 0, 3, 0, 16.220225],
        [2, 0, 0, 3, 0, 21.265424],
        [2, 0, 0, 3, 0, 17.662994],
        [2, 0, 0, 3, 0, 15.838148],
        [2, 0, 0, 3, 0, 6.883722],
        [2, 0, 0, 3, 0, 118.07669],
        [2, 0, 0, 3, 0, 19.82896],
        [2, 0, 0, 3, 0, 18.889404],
        [2, 0, 0, 3, 0, 32.470152],
        [2, 0, 0, 3, 0, 26.491829],
        [2, 0, 0, 3, 0, 24.981434],
        [2, 0, 0, 3, 0, 38.427501],
        [2, 0, 0, 3, 0, 38.894704],
        [2, 0, 0, 3, 0, 34.810352],
        [2, 0, 0, 3, 0, 32.089221],
        [2, 0, 0, 3, 0, 24.960517],
        [2, 0, 0, 3, 0, 40.587389],
        [2, 0, 0, 3, 0, 36.44582],
        [2, 0, 0, 3, 0, 6.803769],
        [2, 0, 0, 3, 0, 27.474887],
        [2, 0, 0, 3, 0, 28.188143],
        [2, 0, 0, 3, 0, 27.672537],
        [2, 0, 0, 3, 0, 37.476158],
        [2, 0, 0, 3, 0, 38.32436],
        [2, 0, 0, 3, 0, 29.361646],
        [2, 0, 0, 3, 0, 46.894604],
        [2, 0, 0, 3, 0, 33.066585],
        [2, 0, 0, 3, 0, 10.656581],
        [2, 0, 0, 3, 0, 15.138451],
        [2, 0, 0, 3, 0, 34.209845],
        [2, 0, 0, 3, 0, 24.094682],
        [2, 0, 0, 3, 0, 24.965438],
        [2, 0, 0, 3, 0, 23.765406],
        [2, 0, 0, 3, 0, 30.752977],
        [2, 0, 0, 3, 0, 22.474015],
        [2, 0, 0, 3, 0, 34.978644],
        [2, 0, 0, 3, 0, 30.995415],
        [2, 0, 0, 3, 0, 18.020307],
        [2, 0, 0, 3, 0, 22.902755],
        [2, 0, 0, 3, 0, 28.059178],
        [2, 0, 0, 3, 0, 31.565151],
        [2, 0, 0, 3, 0, 23.86504],
        [2, 0, 0, 3, 0, 19.68005],
        [2, 0, 0, 3, 0, 26.499589],
        [2, 0, 0, 3, 0, 28.385891],
        [2, 0, 0, 3, 0, 39.23531],
        [2, 0, 0, 3, 0, 31.599182],
        [2, 0, 0, 3, 0, 30.64784],
        [2, 0, 0, 3, 0, 38.31144],
        [2, 0, 0, 3, 0, 7.517541],
        [2, 0, 0, 3, 0, 14.951813],
        [2, 0, 0, 3, 0, 24.810462],
        [2, 0, 0, 3, 0, 79.708144],
        [2, 0, 0, 3, 0, 23.802999],
        [2, 0, 0, 3, 0, 34.702382],
        [2, 0, 0, 3, 0, 38.611659],
        [2, 0, 0, 3, 0, 7.619883],
        [2, 0, 0, 3, 0, 42.1954],
        [2, 0, 0, 3, 0, 7.253371],
        [2, 0, 0, 3, 0, 37.314915],
        [2, 0, 0, 3, 0, 31.383243],
        [2, 0, 0, 3, 0, 22.446061],
        [2, 0, 0, 3, 0, 27.981934],
        [2, 0, 0, 3, 0, 100.586864],
        [2, 0, 0, 3, 0, 33.204589],
        [2, 0, 0, 3, 0, 7.122779],
        [2, 0, 0, 3, 0, 18.6669],
        [2, 0, 0, 3, 0, 7.550981],
        [2, 0, 0, 3, 0, 35.604133],
        [2, 0, 0, 3, 0, 19.804309],
        [2, 0, 0, 3, 0, 26.144799],
        [2, 0, 0, 3, 0, 44.14781],
        [2, 0, 0, 3, 0, 35.562693],
        [2, 0, 0, 3, 0, 35.807424],
        [2, 0, 0, 3, 0, 39.446996],
        [2, 0, 0, 3, 0, 18.53867],
        [2, 0, 0, 3, 0, 30.90988],
        [2, 0, 0, 3, 0, 30.544167],
        [2, 0, 0, 3, 0, 35.965332],
        [2, 0, 0, 3, 0, 7.051011],
        [2, 0, 0, 3, 0, 42.356822],
        [2, 0, 0, 3, 0, 27.296003],
        [2, 0, 0, 3, 0, 30.938094],
        [2, 0, 0, 3, 0, 28.931033],
        [2, 0, 0, 3, 0, 22.588806],
        [2, 0, 0, 3, 0, 37.302716],
        [2, 0, 0, 3, 0, 37.977313],
        [2, 0, 0, 3, 0, 4.345048],
        [2, 0, 0, 3, 0, 22.462959],
        [2, 0, 0, 3, 0, 19.814769],
        [2, 0, 0, 3, 0, 8.0167],
        [2, 0, 0, 3, 0, 20.456068],
        [2, 0, 0, 3, 0, 44.670249],
        [2, 0, 0, 3, 0, 43.366752],
        [2, 0, 0, 3, 0, 36.105171],
        [2, 0, 0, 3, 0, 25.107671],
        [2, 0, 0, 3, 0, 37.943609],
        [2, 0, 0, 3, 0, 33.086316],
        [2, 0, 0, 3, 0, 36.303918],
        [2, 0, 0, 3, 0, 29.260622],
        [2, 0, 0, 3, 0, 98.992318],
        [2, 0, 0, 3, 0, 27.405063],
        [2, 0, 0, 3, 0, 17.378434],
        [2, 0, 0, 3, 0, 34.198047],
        [2, 0, 0, 3, 0, 36.694475],
        [2, 0, 0, 3, 0, 37.735549],
        [2, 0, 0, 3, 0, 8.912924],
        [2, 0, 0, 3, 0, 38.250898],
        [2, 0, 0, 3, 0, 14.979523],
        [2, 0, 0, 3, 0, 28.53811],
        [2, 0, 0, 3, 0, 39.424853],
        [2, 0, 0, 3, 0, 39.296805],
        [2, 0, 0, 3, 0, 14.861628],
        [2, 0, 0, 3, 0, 29.670276],
        [2, 0, 0, 3, 0, 33.798273],
        [2, 0, 0, 3, 0, 28.33667],
        [2, 0, 0, 3, 0, 18.404323],
        [2, 0, 0, 3, 0, 41.060039],
        [2, 0, 0, 3, 0, 32.08086],
        [2, 0, 0, 3, 0, 33.555466],
        [2, 0, 0, 3, 0, 13.210681],
        [2, 0, 0, 3, 0, 32.184103],
        [2, 0, 0, 3, 0, 16.825774],
        [2, 0, 0, 3, 0, 30.459416],
        [2, 0, 0, 3, 0, 31.825995],
        [2, 0, 0, 3, 0, 25.704435],
        [2, 0, 0, 3, 0, 113.881521],
        [2, 0, 0, 3, 0, 48.679477],
        [2, 0, 0, 3, 0, 37.090734],
        [2, 0, 0, 3, 0, 44.629615],
        [2, 0, 0, 3, 0, 4.688],
        [2, 0, 0, 3, 0, 7.924707],
        [2, 0, 0, 3, 0, 15.196866],
        [2, 0, 0, 3, 0, 31.536394],
        [2, 0, 0, 3, 0, 41.05166],
        [2, 0, 0, 3, 0, 36.290422],
        [2, 0, 0, 3, 0, 16.038621],
        [2, 0, 0, 3, 0, 32.583295],
        [2, 0, 0, 3, 0, 18.644095],
        [2, 0, 0, 3, 0, 25.524756],
        [2, 0, 0, 3, 0, 36.090071],
        [2, 0, 0, 3, 0, 43.804954],
        [2, 0, 0, 3, 0, 26.393553],
        [2, 0, 0, 3, 0, 47.182687],
        [2, 0, 0, 3, 0, 14.350508],
        [2, 0, 0, 3, 0, 14.275729],
        [2, 0, 0, 3, 0, 24.479866],
        [2, 0, 0, 3, 0, 114.612148],
        [2, 0, 0, 3, 0, 32.065876],
        [2, 0, 0, 3, 0, 29.385085],
        [2, 0, 0, 3, 0, 36.659346],
        [2, 0, 0, 3, 0, 4.6021],
        [2, 0, 0, 3, 0, 58.771001],
        [2, 0, 0, 3, 0, 15.431582],
...
    ])
    ppc['branch'] = array([
        [7351, 5441, 0.00018, 0.000781, 0, 39412, 39412, 39412, 0, 0, 1, -30],
        [4314, 7571, 0.002961, 0.01669, 0, 319, 1864, 1864, 0, 0, 1, -30],
        [5803, 3916, 0.00056, 0.00432, 0, 7252, 7252, 7252, 0, 0, 1, -30],
        [6757, 6036, 0.0002, 0.00246, 0, 657, 12799, 12799, 0, 0, 1, -30],
        [6757, 6921, 0.0003, 0.00377, 0, 1315, 8353, 8353, 0, 0, 1, -30],
        [5019, 9112, 0.00014, 0.00057, 0, 53817, 53817, 53817, 0, 0, 1, -30],
        [2930, 9112, 0.00013, 0.000729, 0, 42657, 42657, 42657, 0, 0, 1, -30],
        [1436, 9112, 0.00012, 0.000581, 0, 53244, 53244, 53244, 0, 0, 1, -30],
        [1851, 9112, 0.00011, 0.00064, 0, 48642, 48642, 48642, 0, 0, 1, -30],
        [8331, 9112, 0.00019, 0.00056, 0, 53416, 53416, 53416, 0, 0, 1, -30],
        [6220, 8791, 0.00062, 0.004909, 0, 529, 6384, 6384, 0, 0, 1, -30],
        [9203, 7842, 7e-05, 0.00076, 0, 887, 41388, 41388, 0, 0, 1, -30],
        [9203, 8997, 0.00066, 0.00622, 0, 1611, 5051, 5051, 0, 0, 1, -30],
        [9203, 2129, 0.00054, 0.00752, 0, 4190, 4190, 4190, 0, 0, 1, -30],
        [9203, 29, 0.00105, 0.00877, 0, 1315, 3577, 3577, 0, 0, 1, -30],
        [118, 8903, 8e-05, 0.00091, 0, 657, 34578, 34578, 0, 0, 1, -30],
        [118, 4598, 0.00056, 0.00719, 0, 953, 4380, 4380, 0, 0, 1, -30],
        [2426, 5533, 0.000531, 0.002039, 0, 319, 14992, 14992, 0, 0, 1, -30],
        [2426, 4831, 0.008659, 0.03769, 0, 300, 817, 817, 0, 0, 1, -30],
        [2426, 8961, 0.003849, 0.021099, 0, 1473, 1473, 1473, 0, 0, 1, -30],
        [2426, 8522, 0.00688, 0.035969, 0, 300, 863, 863, 0, 0, 1, -30],
        [2426, 6888, 0.006729, 0.03713, 0, 838, 838, 838, 0, 0, 1, -30],
        [2426, 3401, 0.00111, 0.006651, 0, 414, 4685, 4685, 0, 0, 1, -30],
        [2426, 641, 0.0023, 0.008909, 0, 3433, 3433, 3433, 0, 0, 1, -30],
        [2426, 2600, 0.000841, 0.00313, 0, 9747, 9747, 9747, 0, 0, 1, -30],
        [2426, 5351, 0.003521, 0.017479, 0, 300, 1772, 1772, 0, 0, 1, -30],
        [3051, 718, 3.9e-05, 0.00025, 0, 510, 124840, 124840, 0, 0, 1, -30],
        [3036, 2327, 0.000159, 0.000729, 0, 357, 42335, 42335, 0, 0, 1, -30],
        [8651, 7473, 0.005281, 0.032099, 0, 395, 972, 972, 0, 0, 1, -30],
        [8651, 7473, 0.005651, 0.029419, 0, 376, 1055, 1055, 0, 0, 1, -30],
        [903, 3654, 0.000271, 0.00036, 0, 70101, 70101, 70101, 0, 0, 1, -30],
        [8732, 7050, 0.00044, 0.00143, 0, 472, 21113, 21113, 0, 0, 1, -30],
        [8732, 3912, 0.000159, 0.00074, 0, 453, 41734, 41734, 0, 0, 1, -30],
        [2273, 1973, 0.00019, 0.000591, 0, 338, 50883, 50883, 0, 0, 1, -30],
        [5131, 2928, 0.00019, 0.00087, 0, 35472, 35472, 35472, 0, 0, 1, -30],
        [6629, 4918, 0.002591, 0.013659, 0, 319, 2273, 2273, 0, 0, 1, -30],
        [6629, 7309, 0.00305, 0.01168, 0, 2617, 2617, 2617, 0, 0, 1, -30],
        [413, 1102, 0.000159, 0.000599, 0, 433, 50969, 50969, 0, 0, 1, -30],
        [413, 1102, 0.000159, 0.00062, 0, 395, 49351, 49351, 0, 0, 1, -30],
        [3248, 4918, 0.00101, 0.004229, 0, 472, 7265, 7265, 0, 0, 1, -30],
        [3248, 4281, 0.00319, 0.018651, 0, 453, 1670, 1670, 0, 0, 1, -30],
        [3248, 7309, 0.000729, 0.00337, 0, 9162, 9162, 9162, 0, 0, 1, -30],
        [1146, 1187, 0.002961, 0.012831, 0, 281, 2399, 2399, 0, 0, 1, -30],
        [1146, 7945, 0.000591, 0.00339, 0, 9180, 9180, 9180, 0, 0, 1, -30],
        [8900, 2421, 0.00024, 0.001219, 0, 25425, 25425, 25425, 0, 0, 1, -30],
        [6071, 2972, 0.006219, 0.036341, 0, 376, 857, 857, 0, 0, 1, -30],
        [6071, 6031, 0.001841, 0.01193, 0, 472, 2617, 2617, 0, 0, 1, -30],
        [3293, 7264, 0.001409, 0.01113, 0, 414, 2816, 2816, 0, 0, 1, -30],
        [3293, 283, 0.00151, 0.00768, 0, 376, 4036, 4036, 0, 0, 1, -30],
        [3293, 3069, 0.00599, 0.03313, 0, 395, 939, 939, 0, 0, 1, -30],
        [3293, 3390, 0.001771, 0.010151, 0, 357, 3066, 3066, 0, 0, 1, -30],
        [4689, 4936, 0.00074, 0.00311, 0, 9881, 9881, 9881, 0, 0, 1, -30],
        [4689, 4936, 0.000729, 0.003159, 0, 9744, 9744, 9744, 0, 0, 1, -30],
        [3218, 7809, 0.005271, 0.01906, 0, 281, 1598, 1598, 0, 0, 1, -30],
        [3218, 5455, 0.00906, 0.053151, 0, 319, 586, 586, 0, 0, 1, -30],
        [3218, 1857, 0.00405, 0.0153, 0, 1996, 1996, 1996, 0, 0, 1, -30],
        [6806, 5410, 0.00055, 0.003961, 0, 395, 7899, 7899, 0, 0, 1, -30],
        [6806, 5410, 0.00055, 0.003729, 0, 338, 8381, 8381, 0, 0, 1, -30],
        [6806, 1609, 0.00107, 0.007789, 0, 414, 4018, 4018, 0, 0, 1, -30],
        [6806, 1609, 0.00112, 0.00775, 0, 472, 4034, 4034, 0, 0, 1, -30],
        [6806, 1609, 0.001031, 0.00775, 0, 4041, 4041, 4041, 0, 0, 1, -30],
        [6806, 2438, 0.00062, 0.003219, 0, 9636, 9636, 9636, 0, 0, 1, -30],
        [6806, 954, 0.00068, 0.002659, 0, 414, 11510, 11510, 0, 0, 1, -30],
        [9140, 502, 0.00193, 0.012479, 0, 491, 2502, 2502, 0, 0, 1, -30],
        [9140, 3013, 0.001159, 0.007229, 0, 4315, 4315, 4315, 0, 0, 1, -30],
        [9140, 2949, 0.00137, 0.008729, 0, 395, 3575, 3575, 0, 0, 1, -30],
        [9140, 2949, 0.001401, 0.00855, 0, 433, 3646, 3646, 0, 0, 1, -30],
        [9140, 2949, 0.001331, 0.008521, 0, 433, 3663, 3663, 0, 0, 1, -30],
        [7070, 2208, 0.00031, 0.00081, 0, 281, 36421, 36421, 0, 0, 1, -30],
        [7070, 8060, 0.000341, 0.00119, 0, 281, 25518, 25518, 0, 0, 1, -30],
        [7070, 4484, 0.00031, 0.001281, 0, 376, 23967, 23967, 0, 0, 1, -30],
        [7070, 4239, 0.00094, 0.0035, 0, 433, 8717, 8717, 0, 0, 1, -30],
        [8535, 7047, 7e-05, 0.000651, 0, 48244, 48244, 48244, 0, 0, 1, -30],
        [5477, 3657, 0.00019, 0.00124, 0, 491, 25180, 25180, 0, 0, 1, -30],
        [5477, 2928, 0.000331, 0.002539, 0, 433, 12337, 12337, 0, 0, 1, -30],
        [3145, 2918, 0.0016, 0.02113, 0, 1491, 1491, 1491, 0, 0, 1, -30],
        [7770, 5317, 0.000909, 0.004711, 0, 357, 6584, 6584, 0, 0, 1, -30],
        [7770, 5317, 0.00088, 0.004969, 0, 319, 6260, 6260, 0, 0, 1, -30],
        [3, 8676, 0.001841, 0.0088, 0, 3514, 3514, 3514, 0, 0, 1, -30],
        [3, 8189, 0.01013, 0.04238, 0, 395, 725, 725, 0, 0, 1, -30],
        [7267, 2938, 0.00059, 0.00802, 0, 723, 3928, 3928, 0, 0, 1, -30],
        [7267, 2938, 0.00054, 0.0079, 0, 657, 3990, 3990, 0, 0, 1, -30],
        [7267, 3918, 0.00171, 0.02128, 0, 986, 1480, 1480, 0, 0, 1, -30],
        [7267, 3918, 0.00174, 0.02084, 0, 854, 1511, 1511, 0, 0, 1, -30],
        [7267, 6581, 0.00086, 0.01433, 0, 1151, 2201, 2201, 0, 0, 1, -30],
        [7267, 6581, 0.00087, 0.01404, 0, 723, 2246, 2246, 0, 0, 1, -30],
        [7267, 3830, 0.00126, 0.01447, 0, 1118, 2175, 2175, 0, 0, 1, -30],
        [7267, 5648, 0.00122, 0.01509, 0, 1052, 2087, 2087, 0, 0, 1, -30],
        [7267, 5648, 0.00154, 0.019, 0, 1282, 1658, 1658, 0, 0, 1, -30],
        [4918, 4907, 0.00474, 0.03564, 0, 472, 879, 879, 0, 0, 1, -30],
        [4918, 5957, 0.006, 0.047849, 0, 433, 656, 656, 0, 0, 1, -30],
        [4918, 5233, 0.008039, 0.03375, 0, 281, 911, 911, 0, 0, 1, -30],
        [6854, 7309, 2.1e-05, 0.000211, 0, 510, 148968, 148968, 0, 0, 1, -30],
        [8311, 3680, 0.00045, 0.002341, 0, 13251, 13251, 13251, 0, 0, 1, -30],
        [2770, 8804, 0.000669, 0.004281, 0, 433, 7291, 7291, 0, 0, 1, -30],
        [9241, 8804, 0.00068, 0.00419, 0, 7442, 7442, 7442, 0, 0, 1, -30],
        [3083, 7124, 0.000729, 0.00431, 0, 510, 7227, 7227, 0, 0, 1, -30],
        [3083, 7124, 0.000591, 0.004651, 0, 453, 6738, 6738, 0, 0, 1, -30],
        [3083, 8873, 0.00099, 0.005081, 0, 338, 6103, 6103, 0, 0, 1, -30],
        [1566, 7582, 0.00212, 0.013031, 0, 2393, 2393, 2393, 0, 0, 1, -30],
        [1566, 3541, 0.002159, 0.01275, 0, 2443, 2443, 2443, 0, 0, 1, -30],
        [8683, 3698, 0.00025, 0.00095, 0, 32156, 32156, 32156, 0, 0, 1, -30],
        [8683, 3698, 0.000271, 0.00089, 0, 33953, 33953, 33953, 0, 0, 1, -30],
        [8683, 2801, 0.001961, 0.012409, 0, 281, 2515, 2515, 0, 0, 1, -30],
        [8683, 8328, 0.00044, 0.00207, 0, 472, 14927, 14927, 0, 0, 1, -30],
        [8683, 8511, 0.000469, 0.00143, 0, 529, 20990, 20990, 0, 0, 1, -30],
        [8683, 6570, 0.001271, 0.01406, 0, 529, 2238, 2238, 0, 0, 1, -30],
        [8683, 6570, 0.00124, 0.013021, 0, 529, 2415, 2415, 0, 0, 1, -30],
        [8683, 8975, 0.000409, 0.00239, 0, 13028, 13028, 13028, 0, 0, 1, -30],
        [8683, 216, 0.00094, 0.005, 0, 338, 6209, 6209, 0, 0, 1, -30],
        [8683, 2961, 0.000219, 0.0007, 0, 529, 43067, 43067, 0, 0, 1, -30],
        [8683, 6773, 6e-05, 0.00025, 0, 122861, 122861, 122861, 0, 0, 1, -30],
        [8683, 5278, 5e-05, 0.000229, 0, 134762, 134762, 134762, 0, 0, 1, -30],
        [3768, 2751, 0.00019, 0.000909, 0, 34015, 34015, 34015, 0, 0, 1, -30],
        [2276, 5546, 0.001711, 0.00782, 0, 3946, 3946, 3946, 0, 0, 1, -30],
        [2276, 6816, 0.002651, 0.01176, 0, 319, 2621, 2621, 0, 0, 1, -30],
        [7766, 444, 0.001409, 0.010599, 0, 2955, 2955, 2955, 0, 0, 1, -30],
        [7766, 5334, 0.001419, 0.010219, 0, 3062, 3062, 3062, 0, 0, 1, -30],
        [839, 3918, 0.00013, 0.00212, 0, 756, 14872, 14872, 0, 0, 1, -30],
        [839, 809, 0.00026, 0.00313, 0, 1282, 10058, 10058, 0, 0, 1, -30],
        [4506, 2286, 0.0047, 0.0318, 0, 376, 983, 983, 0, 0, 1, -30],
        [4506, 6802, 0.00136, 0.00768, 0, 338, 4050, 4050, 0, 0, 1, -30],
        [4506, 3520, 0.005669, 0.027789, 0, 300, 1114, 1114, 0, 0, 1, -30],
        [7273, 6271, 0.004409, 0.033091, 0, 281, 947, 947, 0, 0, 1, -30],
        [7273, 1435, 0.01056, 0.044469, 0, 692, 692, 692, 0, 0, 1, -30],
        [7273, 7148, 0.01963, 0.07736, 0, 338, 396, 396, 0, 0, 1, -30],
        [7273, 7437, 0.01157, 0.04694, 0, 357, 654, 654, 0, 0, 1, -30],
        [6104, 871, 0.000479, 0.00255, 0, 357, 12175, 12175, 0, 0, 1, -30],
        [7580, 871, 0.000469, 0.00236, 0, 13128, 13128, 13128, 0, 0, 1, -30],
        [1188, 1539, 0.01237, 0.067039, 0, 281, 464, 464, 0, 0, 1, -30],
        [1188, 8515, 0.0132, 0.056229, 0, 281, 547, 547, 0, 0, 1, -30],
        [3971, 4084, 0.00026, 0.001711, 0, 18252, 18252, 18252, 0, 0, 1, -30],
        [3971, 4084, 0.000271, 0.001669, 0, 18682, 18682, 18682, 0, 0, 1, -30],
        [6845, 5340, 0.000211, 0.000401, 0, 69711, 69711, 69711, 0, 0, 1, -30],
        [8294, 5814, 0.00105, 0.005159, 0, 6000, 6000, 6000, 0, 0, 1, -30],
        [7115, 6807, 0.00212, 0.00931, 0, 319, 3309, 3309, 0, 0, 1, -30],
        [619, 6791, 0.000151, 0.00068, 0, 45348, 45348, 45348, 0, 0, 1, -30],
        [5418, 4908, 0.00019, 0.00082, 0, 37527, 37527, 37527, 0, 0, 1, -30],
        [5120, 6816, 0.003219, 0.01405, 0, 300, 2192, 2192, 0, 0, 1, -30],
        [6692, 9158, 0.007271, 0.033159, 0, 281, 931, 931, 0, 0, 1, -30],
        [6692, 8035, 0.006659, 0.03132, 0, 300, 987, 987, 0, 0, 1, -30],
        [3445, 2848, 0.00057, 0.00668, 0, 1480, 4712, 4712, 0, 0, 1, -30],
        [3445, 7056, 0.00057, 0.00758, 0, 1414, 4156, 4156, 0, 0, 1, -30],
        [3445, 7056, 0.00039, 0.00607, 0, 821, 5194, 5194, 0, 0, 1, -30],
        [3445, 1642, 0.00155, 0.0179, 0, 1759, 1759, 1759, 0, 0, 1, -30],
        [3445, 4594, 0.00036, 0.00485, 0, 1545, 6495, 6495, 0, 0, 1, -30],
        [6114, 1692, 0.000581, 0.004229, 0, 338, 7400, 7400, 0, 0, 1, -30],
        [6114, 8190, 0.00056, 0.00431, 0, 7268, 7268, 7268, 0, 0, 1, -30],
        [6114, 5836, 0.003099, 0.020531, 0, 472, 1522, 1522, 0, 0, 1, -30],
        [6114, 3191, 0.00118, 0.016919, 0, 510, 1863, 1863, 0, 0, 1, -30],
        [6114, 5300, 0.00188, 0.01407, 0, 2226, 2226, 2226, 0, 0, 1, -30],
        [6114, 4889, 0.00545, 0.04082, 0, 357, 768, 768, 0, 0, 1, -30],
        [7264, 444, 0.00214, 0.01639, 0, 453, 1912, 1912, 0, 0, 1, -30],
        [7264, 4747, 0.002479, 0.01549, 0, 2014, 2014, 2014, 0, 0, 1, -30],
        [7982, 9011, 0.000159, 0.001229, 0, 472, 25490, 25490, 0, 0, 1, -30],
        [7982, 6675, 0.00026, 0.00162, 0, 453, 19252, 19252, 0, 0, 1, -30],
        [7982, 6909, 0.000159, 0.00113, 0, 376, 27681, 27681, 0, 0, 1, -30],
        [7982, 8835, 0.000461, 0.003219, 0, 472, 9714, 9714, 0, 0, 1, -30],
        [7982, 4186, 0.000159, 0.001229, 0, 25490, 25490, 25490, 0, 0, 1, -30],
        [1604, 502, 0.000229, 0.00139, 0, 376, 22423, 22423, 0, 0, 1, -30],
        [2842, 502, 0.0002, 0.00156, 0, 338, 20084, 20084, 0, 0, 1, -30],
        [1354, 513, 0.00145, 0.00824, 0, 281, 3776, 3776, 0, 0, 1, -30],
        [1354, 502, 0.00069, 0.005, 0, 491, 6259, 6259, 0, 0, 1, -30],
        [891, 3697, 0.00036, 0.00455, 0, 1809, 6921, 6921, 0, 0, 1, -30],
        [891, 3697, 0.00036, 0.00453, 0, 1776, 6952, 6952, 0, 0, 1, -30],
        [8312, 7541, 0.00066, 0.00997, 0, 1348, 3162, 3162, 0, 0, 1, -30],
        [8312, 7541, 0.00064, 0.01016, 0, 986, 3103, 3103, 0, 0, 1, -30],
        [6306, 4826, 9.9e-05, 0.00044, 0, 529, 70039, 70039, 0, 0, 1, -30],
        [4826, 4418, 6e-05, 0.000469, 0, 66806, 66806, 66806, 0, 0, 1, -30],
        [4826, 1605, 3.9e-05, 0.000341, 0, 92032, 92032, 92032, 0, 0, 1, -30],
        [4826, 6952, 0.002531, 0.01943, 0, 433, 1613, 1613, 0, 0, 1, -30],
        [4826, 7124, 0.00945, 0.06418, 0, 414, 487, 487, 0, 0, 1, -30],
        [9128, 217, 0.000591, 0.002831, 0, 357, 10923, 10923, 0, 0, 1, -30],
        [7014, 217, 0.00087, 0.00387, 0, 7964, 7964, 7964, 0, 0, 1, -30],
        [720, 5350, 0.0015, 0.01785, 0, 1183, 1764, 1764, 0, 0, 1, -30],
        [720, 5350, 0.00147, 0.0182, 0, 1151, 1730, 1730, 0, 0, 1, -30],
        [1711, 639, 0.00151, 0.0113, 0, 376, 2771, 2771, 0, 0, 1, -30],
        [1711, 639, 0.001479, 0.011521, 0, 395, 2720, 2720, 0, 0, 1, -30],
        [1711, 9130, 0.00174, 0.010341, 0, 414, 3013, 3013, 0, 0, 1, -30],
        [1711, 9130, 0.001659, 0.01206, 0, 453, 2595, 2595, 0, 0, 1, -30],
        [8209, 1998, 0.00069, 0.000479, 0, 37606, 37606, 37606, 0, 0, 1, -30],
        [8209, 7974, 0.00044, 0.00139, 0, 21666, 21666, 21666, 0, 0, 1, -30],
        [1035, 8180, 0.002039, 0.01601, 0, 1958, 1958, 1958, 0, 0, 1, -30],
        [1035, 7466, 0.01349, 0.05662, 0, 357, 543, 543, 0, 0, 1, -30],
        [1035, 305, 0.00082, 0.00438, 0, 300, 7089, 7089, 0, 0, 1, -30],
        [1035, 305, 0.0008, 0.004461, 0, 281, 6970, 6970, 0, 0, 1, -30],
        [1035, 5106, 0.001091, 0.00888, 0, 453, 3531, 3531, 0, 0, 1, -30],
        [1035, 5106, 0.00111, 0.007039, 0, 491, 4433, 4433, 0, 0, 1, -30],
        [2527, 8466, 0.000849, 0.00537, 0, 433, 5811, 5811, 0, 0, 1, -30],
        [8669, 8893, 0.00061, 0.00275, 0, 357, 11214, 11214, 0, 0, 1, -30],
        [6206, 7691, 0.00141, 0.0188, 0, 1315, 1676, 1676, 0, 0, 1, -30],
        [6206, 6624, 0.00121, 0.01427, 0, 1545, 2206, 2206, 0, 0, 1, -30],
        [3240, 8158, 0.001711, 0.007159, 0, 338, 4292, 4292, 0, 0, 1, -30],
        [3240, 8795, 0.00545, 0.02381, 0, 300, 1294, 1294, 0, 0, 1, -30],
        [3240, 4143, 0.000771, 0.004331, 0, 7181, 7181, 7181, 0, 0, 1, -30],
        [3240, 2797, 0.00414, 0.03282, 0, 453, 955, 955, 0, 0, 1, -30],
        [3240, 6331, 0.00264, 0.011521, 0, 338, 2673, 2673, 0, 0, 1, -30],
        [3240, 6384, 0.00261, 0.011, 0, 376, 2795, 2795, 0, 0, 1, -30],
        [3240, 7523, 0.00239, 0.00919, 0, 319, 3327, 3327, 0, 0, 1, -30],
        [3240, 2889, 0.000539, 0.00226, 0, 13596, 13596, 13596, 0, 0, 1, -30],
...
    ])

    return ppc
